0.AXwAFxCGpe0rh0SO6aqeEB1VWlT2PAiBN_hNuzq1FdmdccW7AJI.AgABAAEAAAD--DLA3VO7QrddgJg7WevrAgDs_wUA9P9I1cE135D3CUzg3bE3hUD4t06GydOgcqBOioQu1eNuAPBaqLNuFY9Q9i7Cqs4My8Ns2iR6O_0I0qVhu1RK23WzdrOehnRV-1Idhw6XvwQUrtmzi4jbn2k84YnkpZxLrhUbJEp7d3EpP86S7K23xchueVcYXVLeWkvFGjNE_3N92LkyqDboir6u4ikhnIMMzpPSSE-2BHz9wSuKpVjS3mn5do8-rFV6GzN56kZd0GnZtiQY-p09c4kOrrJtqCQDy6BwbvKdJ9f9tMkERSSqXVOm0nw0wqfd6uJEoCloYfiqrqUtOmq5k4qfD0OvIep7QegvG5n3h1Ic19ArMwIj_zN6SuKMK9cOKxmbAROaXjBWp4DSZXV-ZtI1blFr-fR1ykEyMVst35i4wEMnJ1EgERjijBNERfNUb977kirk1aL_yyuH6ZfI3VORnFbLbgRgxpv4GhrlPdnRMtkbn6klVe9qB1fNB1JS21RXAwcuRTkSb4-xxC7gLtZMc4whP6ppv0F2IT115EdsIOUpzMJq2945P3hkebPPqCMkLYK2F-VZ258tCQdp0NAnNqQMZGjWjUcI4JKvj0X0XZGcZN9U9NDNkkvo033pF9DKJ-RWYls001Rg1kltpC46tuuFRdamYY8JV7jg43KqCa7SCup2EKzul-yqBLEg49SS84Aq1LZeBYajx8ClgZIYegQ9s8oRh3VNyH6eKFYU7L9zDSIfx_SaJHw7hreBEhkPTLwQ-DTCRdmoQapY44B4y7Il